12 

C    -0.164435650459      3.023000382001     -2.212776920108
C    -1.320504343354      2.668310022893     -1.514612920108
C     0.991633042436      3.377690741109     -1.514612920108
C    -1.320504343354      2.668310022893     -0.118282920108
C     0.991633042436      3.377690741109     -0.118282920108
C    -0.164435650459      3.023000382001      0.579881079892
H    -2.219929449881      2.392359799532     -2.057785920108
H     1.891058148963      3.653640964470     -2.057785920108
H    -2.219929449881      2.392359799532      0.424890079892
H     1.891058148963      3.653640964470      0.424890079892
H    -0.164435650459      3.023000382001      1.666228079892
H    -0.164435650459      3.023000382001     -3.299123920108
