4
step: 1  T=      400.000K  Ek=  0.206815998  Ep=  1.968365565  E_gap=    12.938260  Err=       0.0000000000000000  time_stamp= 1758753277.7027
B        -0.01125        -0.00025         0.00018
H         1.35665         0.00111        -0.00057
H        -0.61771         1.01507        -0.00066
H        -0.61832        -1.01353        -0.00066
4
step: 2  T=      400.000K  Ek=  0.206815998  Ep=  1.837371301  E_gap=    13.060871  Err=       0.0000000000000000  time_stamp= 1758753277.7665
B        -0.00901        -0.00039         0.00028
H         1.33398         0.00177        -0.00091
H        -0.61817         1.00421        -0.00106
H        -0.61916        -1.00178        -0.00106
4
step: 3  T=      400.000K  Ek=  0.206815998  Ep=  1.711593475  E_gap=    13.178420  Err=       0.0000000000000000  time_stamp= 1758753277.8305
B        -0.00701        -0.00050         0.00036
H         1.31059         0.00227        -0.00116
H        -0.61703         0.99388        -0.00136
H        -0.61833        -0.99080        -0.00136
4
step: 4  T=      400.000K  Ek=  0.206815998  Ep=  1.594513659  E_gap=    13.290486  Err=       0.0000000000000000  time_stamp= 1758753277.8945
B        -0.00520        -0.00057         0.00042
H         1.28680         0.00264        -0.00134
H        -0.61471         0.98413        -0.00158
H        -0.61628        -0.98062        -0.00158
4
step: 5  T=      400.000K  Ek=  0.206815998  Ep=  1.488490430  E_gap=    13.396685  Err=       0.0000000000000000  time_stamp= 1758753277.9606
B        -0.00354        -0.00062         0.00046
H         1.26282         0.00290        -0.00147
H        -0.61155         0.97499        -0.00174
H        -0.61335        -0.97121        -0.00174
4
step: 6  T=      400.000K  Ek=  0.206815998  Ep=  1.395227354  E_gap=    13.493085  Err=       0.0000000000000000  time_stamp= 1758753278.0259
B        -0.00197        -0.00065         0.00049
H         1.23878         0.00309        -0.00156
H        -0.60780         0.96646        -0.00186
H        -0.60982        -0.96256        -0.00186
4
step: 7  T=      400.000K  Ek=  0.206815998  Ep=  1.316053936  E_gap=    13.536731  Err=       0.0000000000000000  time_stamp= 1758753278.0916
B        -0.00049        -0.00066         0.00051
H         1.21475         0.00322        -0.00162
H        -0.60364         0.95854        -0.00194
H        -0.60587        -0.95463        -0.00194
4
step: 8  T=      400.000K  Ek=  0.206815998  Ep=  1.252080822  E_gap=    13.558379  Err=       0.0000000000000000  time_stamp= 1758753278.1555
B         0.00094        -0.00066         0.00052
H         1.19080         0.00329        -0.00164
H        -0.59921         0.95122        -0.00199
H        -0.60165        -0.94740        -0.00199
4
step: 9  T=      400.000K  Ek=  0.206815998  Ep=  1.204280690  E_gap=    13.578840  Err=       0.0000000000000000  time_stamp= 1758753278.2216
B         0.00232        -0.00065         0.00053
H         1.16698         0.00332        -0.00164
H        -0.59461         0.94450        -0.00201
H        -0.59725        -0.94085        -0.00202
4
step: 10  T=      400.000K  Ek=  0.206815998  Ep=  1.173518080  E_gap=    13.598898  Err=       0.0000000000000000  time_stamp= 1758753278.2871
B         0.00366        -0.00062         0.00053
H         1.14335         0.00331        -0.00162
H        -0.58989         0.93838        -0.00202
H        -0.59273        -0.93498        -0.00202
