4
step: 1  T=      227.873K  Ek=  0.117819391  Ep=  1.440759444  E_gap=    13.422568  Err=       0.0000000000000000  time_stamp= 1758753278.4516
B         0.00032         0.00008         0.00121
H         1.20789        -0.00526        -0.00446
H        -0.60966         1.02565        -0.00429
H        -0.60164        -1.02121        -0.00424
4
step: 2  T=      228.041K  Ek=  0.117906065  Ep=  1.430735864  E_gap=    13.418589  Err=       0.0000000000000000  time_stamp= 1758753278.5150
B         0.00058         0.00021         0.00230
H         1.21305        -0.01015        -0.00830
H        -0.61741         1.01711        -0.00797
H        -0.60191        -1.00918        -0.00837
4
step: 3  T=      256.450K  Ek=  0.132594997  Ep=  1.402356933  E_gap=    13.424131  Err=       0.0000000000000000  time_stamp= 1758753278.5775
B         0.00090         0.00057         0.00326
H         1.21258        -0.01471        -0.01223
H        -0.62231         1.00598        -0.01110
H        -0.59994        -0.99734        -0.01165
4
step: 4  T=      308.719K  Ek=  0.159619976  Ep=  1.366803892  E_gap=    13.434671  Err=       0.0000000000000000  time_stamp= 1758753278.6554
B         0.00130         0.00085         0.00426
H         1.20917        -0.01943        -0.01609
H        -0.62632         0.99368        -0.01426
H        -0.59674        -0.98337        -0.01531
4
step: 5  T=      369.003K  Ek=  0.190789257  Ep=  1.323201381  E_gap=    13.453048  Err=       0.0000000000000000  time_stamp= 1758753278.7192
B         0.00180         0.00099         0.00522
H         1.20106        -0.02261        -0.01955
H        -0.62774         0.98053        -0.01793
H        -0.59261        -0.96854        -0.01848
4
step: 6  T=      448.255K  Ek=  0.231765827  Ep=  1.280800959  E_gap=    13.468934  Err=       0.0000000000000000  time_stamp= 1758753278.7832
B         0.00258         0.00119         0.00618
H         1.18945        -0.02550        -0.02317
H        -0.62791         0.96619        -0.02108
H        -0.58916        -0.95347        -0.02204
4
step: 7  T=      506.805K  Ek=  0.262038566  Ep=  1.245192272  E_gap=    13.487722  Err=       0.0000000000000000  time_stamp= 1758753278.8465
B         0.00335         0.00158         0.00709
H         1.17543        -0.02891        -0.02630
H        -0.62674         0.94991        -0.02452
H        -0.58463        -0.93794        -0.02525
4
step: 8  T=      529.110K  Ek=  0.273570806  Ep=  1.223008787  E_gap=    13.501462  Err=       0.0000000000000000  time_stamp= 1758753278.9132
B         0.00432         0.00213         0.00789
H         1.15920        -0.03272        -0.02923
H        -0.62519         0.93339        -0.02726
H        -0.58036        -0.92353        -0.02815
4
step: 9  T=      538.960K  Ek=  0.278663735  Ep=  1.216931484  E_gap=    13.516284  Err=       0.0000000000000000  time_stamp= 1758753278.9787
B         0.00529         0.00271         0.00868
H         1.14103        -0.03604        -0.03199
H        -0.62235         0.91725        -0.03040
H        -0.57536        -0.91023        -0.03066
4
step: 10  T=      499.803K  Ek=  0.258418067  Ep=  1.230256368  E_gap=    13.527073  Err=       0.0000000000000000  time_stamp= 1758753279.0447
B         0.00642         0.00323         0.00931
H         1.12167        -0.03822        -0.03450
H        -0.61936         0.90128        -0.03272
H        -0.57120        -0.89775        -0.03264
